 fsurdat = '/gpfs/fs1/work/sbradley/CESM2.0_SETUP/CLM/surfdata_0.9x1.25_hist_16pfts_nourb_CMIP6_simyr21ka_c190501.nc'
 glcmec_downscale_longwave = .false.				
 glacier_region_rain_to_snow_behavior = 'converted_to_snow','runs_off','converted_to_snow'
 glacier_region_behavior = 'single_at_atm_topo','virtual','single_at_atm_topo'
 glacier_region_melt_behavior= 'remains_in_place','replaced_by_ice','remains_in_place'
 glacier_region_ice_runoff_behavior = 'melted','remains_ice','melted'
