! Add in an initial condition file that isn't in equilibrium and will need to be brought into equilibrium.
! We purposely want to add a shock to ensure the model can properly respond to it, skipping balance checks
! at the beginning and then coming into balance after enough time.
 !finidat = '$DIN_LOC_ROOT/lnd/clm2/initdata_map/clmi.I1850Clm45BgcGs.0901-01-01.0.9x1.25_gx1v7_simyr1850_c190718.nc'
 !use_init_interp = .true.
   drydep_list = 'CH2O', 'CH3OOH', 'CO', 'H2O2', 'H2SO4', 'HNO3', 'HO2NO2', 'NO',
       'NO2', 'O3', 'SO2'
   megan_mapped_emisfctrs = .false.
   megan_specifier = 'CH2O = formaldehyde', 'CO = carbon_monoxide'
